[General]
network = Net2
sim-time-limit = 0.1s
