[General]
network = NetXBar
sim-time-limit = 0.1s